*Heading
** FinEleMethod Q4 plane-stress cantilever-beam benchmark
** Length=10, height=1, thickness=1, E=1000, nu=0.25, end load=-1
*Node
1, 0.0, -0.50
2, 0.5, -0.50
3, 1.0, -0.50
4, 1.5, -0.50
5, 2.0, -0.50
6, 2.5, -0.50
7, 3.0, -0.50
8, 3.5, -0.50
9, 4.0, -0.50
10, 4.5, -0.50
11, 5.0, -0.50
12, 5.5, -0.50
13, 6.0, -0.50
14, 6.5, -0.50
15, 7.0, -0.50
16, 7.5, -0.50
17, 8.0, -0.50
18, 8.5, -0.50
19, 9.0, -0.50
20, 9.5, -0.50
** ... 85 like lines cut
*Material, name=BeamMaterial
*Elastic
1000.0, 0.25
*Element, type=CPS4, elset=Beam
1, 1, 2, 23, 22
2, 2, 3, 24, 23
3, 3, 4, 25, 24
4, 4, 5, 26, 25
5, 5, 6, 27, 26
6, 6, 7, 28, 27
7, 7, 8, 29, 28
8, 8, 9, 30, 29
9, 9, 10, 31, 30
10, 10, 11, 32, 31
11, 11, 12, 33, 32
12, 12, 13, 34, 33
13, 13, 14, 35, 34
14, 14, 15, 36, 35
15, 15, 16, 37, 36
16, 16, 17, 38, 37
17, 17, 18, 39, 38
18, 18, 19, 40, 39
19, 19, 20, 41, 40
20, 20, 21, 42, 41
** ... 60 like lines cut
*Solid Section, elset=Beam, material=BeamMaterial
1.0
*Nset, nset=Fixed
1, 22, 43, 64, 85
*Boundary
Fixed, 1, 2, 0.0
*Cload
21, 2, -0.083333333333
42, 2, -0.333333333333
63, 2, -0.166666666667
84, 2, -0.333333333333
105, 2, -0.083333333333

