*Heading
** FinEleMethod Q4 plane-stress plate-with-a-hole benchmark
** Quarter model: hole radius=1, outer radius=10, E=1000, nu=0.25
** Exact Kirsch tractions for remote uniaxial stress sigma_x=1
*Node
1, 1.000000000000000, 0.000000000000000
2, 0.9951847266721969, 0.09801714032956060
3, 0.9807852804032304, 0.1950903220161282
4, 0.9569403357322088, 0.2902846772544623
5, 0.9238795325112867, 0.3826834323650898
6, 0.8819212643483550, 0.4713967368259976
7, 0.8314696123025452, 0.5555702330196022
8, 0.7730104533627370, 0.6343932841636455
9, 0.7071067811865476, 0.7071067811865475
10, 0.6343932841636455, 0.7730104533627370
11, 0.5555702330196023, 0.8314696123025452
12, 0.4713967368259978, 0.8819212643483549
13, 0.3826834323650898, 0.9238795325112867
14, 0.2902846772544623, 0.9569403357322089
15, 0.1950903220161283, 0.9807852804032304
16, 0.09801714032956077, 0.9951847266721968
17, 6.123233995736766e-17, 1.000000000000000
18, 1.333521432163324, 0.000000000000000
19, 1.327100161978974, 0.1307079573488291
20, 1.307898191768023, 0.2601571256161514
** ... 133 like lines cut
*Element, type=CPS4, elset=PLATE
1, 1, 18, 19, 2
2, 2, 19, 20, 3
3, 3, 20, 21, 4
4, 4, 21, 22, 5
5, 5, 22, 23, 6
6, 6, 23, 24, 7
7, 7, 24, 25, 8
8, 8, 25, 26, 9
9, 9, 26, 27, 10
10, 10, 27, 28, 11
11, 11, 28, 29, 12
12, 12, 29, 30, 13
13, 13, 30, 31, 14
14, 14, 31, 32, 15
15, 15, 32, 33, 16
16, 16, 33, 34, 17
17, 18, 35, 36, 19
18, 19, 36, 37, 20
19, 20, 37, 38, 21
20, 21, 38, 39, 22
** ... 108 like lines cut
*Nset, nset=XAXIS
1, 18, 35, 52, 69, 86, 103, 120, 137
*Nset, nset=YAXIS
17, 34, 51, 68, 85, 102, 119, 136, 153
*Material, name=STEEL
*Elastic
1000, 0.25
*Solid Section, elset=PLATE, material=STEEL
1.0
*Boundary
XAXIS, 2, 2, 0.0
YAXIS, 1, 1, 0.0
*Cload
137, 1, 0.4779342740610761
137, 2, -0.0006732736740084244
138, 1, 0.9518197644556449
138, 2, -0.004204884788141968
139, 1, 0.9396646966693422
139, 2, -0.008047647721759624
140, 1, 0.9193813869990090
140, 2, -0.01119735263728848
141, 1, 0.8909468202802067
141, 2, -0.01338274906231785
142, 1, 0.8543559501419491
142, 2, -0.01441563212414030
143, 1, 0.8096457651493127
143, 2, -0.01420705062701579
144, 1, 0.7569220947501893
144, 2, -0.01277496746942166
145, 1, 0.6963865576827075
145, 2, -0.01024271269129701
146, 1, 0.6283609847642219
146, 2, -0.006828362373815014
** ... 14 like lines cut
